FoamFile
{
	version	2.0;
	format	ascii;
	class	dictionary;
	location	"system";
	object	createPatchDict;
}
pointSync	false;
patches	(
	{
		name	Autoplane_Plane;
		patchInfo
		{
			type	wall;
		}
		constructFrom	patches;
		patches	(Autoplane_Plane_face_1 Autoplane_Plane_face_2 Autoplane_Plane_face_3 Autoplane_Plane_face_4 Autoplane_Plane_face_5 Autoplane_Plane_face_6 Autoplane_Plane_face_7 Autoplane_Plane_face_8 Autoplane_Plane_face_9 Autoplane_Plane_face_10 Autoplane_Plane_face_11 Autoplane_Plane_face_12 Autoplane_Plane_face_13 Autoplane_Plane_face_14 Autoplane_Plane_face_15 Autoplane_Plane_face_16 Autoplane_Plane_face_17 Autoplane_Plane_face_18 Autoplane_Plane_face_19 Autoplane_Plane_face_20 Autoplane_Plane_face_21 Autoplane_Plane_face_22 Autoplane_Plane_face_23 Autoplane_Plane_face_24 Autoplane_Plane_face_25 Autoplane_Plane_face_26 Autoplane_Plane_face_27 Autoplane_Plane_face_28 Autoplane_Plane_face_29 Autoplane_Plane_face_30 Autoplane_Plane_face_31 Autoplane_Plane_face_32 Autoplane_Plane_face_33 Autoplane_Plane_face_34 Autoplane_Plane_face_35 Autoplane_Plane_face_36 Autoplane_Plane_face_37 Autoplane_Plane_face_38 Autoplane_Plane_face_39 Autoplane_Plane_face_40 Autoplane_Plane_face_41 Autoplane_Plane_face_42 Autoplane_Plane_face_43 Autoplane_Plane_face_44 Autoplane_Plane_face_45 Autoplane_Plane_face_46 Autoplane_Plane_face_47 Autoplane_Plane_face_48 Autoplane_Plane_face_49 Autoplane_Plane_face_50 Autoplane_Plane_face_51 Autoplane_Plane_face_52 Autoplane_Plane_face_53 Autoplane_Plane_face_54 Autoplane_Plane_face_55 Autoplane_Plane_face_56 Autoplane_Plane_face_57 Autoplane_Plane_face_58 Autoplane_Plane_face_59 Autoplane_Plane_face_60 Autoplane_Plane_face_61 Autoplane_Plane_face_62 Autoplane_Plane_face_63 Autoplane_Plane_face_64 Autoplane_Plane_face_65 Autoplane_Plane_face_66 Autoplane_Plane_face_67 Autoplane_Plane_face_68 Autoplane_Plane_face_69 Autoplane_Plane_face_70 Autoplane_Plane_face_71 Autoplane_Plane_face_72 Autoplane_Plane_face_73 Autoplane_Plane_face_74 Autoplane_Plane_face_75 Autoplane_Plane_face_76 Autoplane_Plane_face_77 Autoplane_Plane_face_78 Autoplane_Plane_face_79 Autoplane_Plane_face_80 Autoplane_Plane_face_81 Autoplane_Plane_face_82 Autoplane_Plane_face_83 Autoplane_Plane_face_84 Autoplane_Plane_face_85 Autoplane_Plane_face_86 Autoplane_Plane_face_87 Autoplane_Plane_face_88 Autoplane_Plane_face_89 Autoplane_Plane_face_90 Autoplane_Plane_face_91 Autoplane_Plane_face_92 Autoplane_Plane_face_93 Autoplane_Plane_face_94 Autoplane_Plane_face_95 Autoplane_Plane_face_96 Autoplane_Plane_face_97 Autoplane_Plane_face_98 Autoplane_Plane_face_99 Autoplane_Plane_face_100 Autoplane_Plane_face_101 Autoplane_Plane_face_102 Autoplane_Plane_face_103 Autoplane_Plane_face_104 Autoplane_Plane_face_105 Autoplane_Plane_face_106 Autoplane_Plane_face_107 Autoplane_Plane_face_108 Autoplane_Plane_face_109 Autoplane_Plane_face_110 Autoplane_Plane_face_111 Autoplane_Plane_face_112 Autoplane_Plane_face_113 Autoplane_Plane_face_114 Autoplane_Plane_face_115 Autoplane_Plane_face_116 Autoplane_Plane_face_117 Autoplane_Plane_face_118 Autoplane_Plane_face_119 Autoplane_Plane_face_120 Autoplane_Plane_face_121 Autoplane_Plane_face_122 Autoplane_Plane_face_123 Autoplane_Plane_face_124 Autoplane_Plane_face_125 Autoplane_Plane_face_126 Autoplane_Plane_face_127 Autoplane_Plane_face_128 Autoplane_Plane_face_129 Autoplane_Plane_face_130 Autoplane_Plane_face_131 Autoplane_Plane_face_132 Autoplane_Plane_face_133 Autoplane_Plane_face_134 Autoplane_Plane_face_135 Autoplane_Plane_face_136 Autoplane_Plane_face_137 Autoplane_Plane_face_138 Autoplane_Plane_face_139 Autoplane_Plane_face_140 Autoplane_Plane_face_141 Autoplane_Plane_face_142 Autoplane_Plane_face_143 Autoplane_Plane_face_144 Autoplane_Plane_face_145 Autoplane_Plane_face_146 Autoplane_Plane_face_147 Autoplane_Plane_face_148 Autoplane_Plane_face_149 Autoplane_Plane_face_150 Autoplane_Plane_face_151 Autoplane_Plane_face_152 Autoplane_Plane_face_153 Autoplane_Plane_face_154 Autoplane_Plane_face_155 Autoplane_Plane_face_156 Autoplane_Plane_face_157 Autoplane_Plane_face_158 Autoplane_Plane_face_159 Autoplane_Plane_face_160 Autoplane_Plane_face_161 Autoplane_Plane_face_162 Autoplane_Plane_face_163 Autoplane_Plane_face_164 Autoplane_Plane_face_165 Autoplane_Plane_face_166 Autoplane_Plane_face_167 Autoplane_Plane_face_168 Autoplane_Plane_face_169 Autoplane_Plane_face_170 Autoplane_Plane_face_171 Autoplane_Plane_face_172 Autoplane_Plane_face_173 Autoplane_Plane_face_174 Autoplane_Plane_face_175 Autoplane_Plane_face_176 Autoplane_Plane_face_177 Autoplane_Plane_face_178 Autoplane_Plane_face_179 Autoplane_Plane_face_180 Autoplane_Plane_face_181 Autoplane_Plane_face_182 Autoplane_Plane_face_183 Autoplane_Plane_face_184 Autoplane_Plane_face_185 Autoplane_Plane_face_186 Autoplane_Plane_face_187 Autoplane_Plane_face_188 Autoplane_Plane_face_189 Autoplane_Plane_face_190 Autoplane_Plane_face_191 Autoplane_Plane_face_192 Autoplane_Plane_face_193 Autoplane_Plane_face_194 Autoplane_Plane_face_195 Autoplane_Plane_face_196 Autoplane_Plane_face_197 Autoplane_Plane_face_198 Autoplane_Plane_face_199 Autoplane_Plane_face_200 Autoplane_Plane_face_201 Autoplane_Plane_face_202 Autoplane_Plane_face_203 Autoplane_Plane_face_204 Autoplane_Plane_face_205 Autoplane_Plane_face_206 Autoplane_Plane_face_207 Autoplane_Plane_face_208 Autoplane_Plane_face_209 Autoplane_Plane_face_210 Autoplane_Plane_face_211 Autoplane_Plane_face_212 Autoplane_Plane_face_213 Autoplane_Plane_face_214 Autoplane_Plane_face_215 Autoplane_Plane_face_216 Autoplane_Plane_face_217 Autoplane_Plane_face_218 Autoplane_Plane_face_219 Autoplane_Plane_face_220 Autoplane_Plane_face_221 Autoplane_Plane_face_222 Autoplane_Plane_face_223 Autoplane_Plane_face_224 Autoplane_Plane_face_225 Autoplane_Plane_face_226 Autoplane_Plane_face_227 Autoplane_Plane_face_228 Autoplane_Plane_face_229 Autoplane_Plane_face_230 Autoplane_Plane_face_231 Autoplane_Plane_face_232 Autoplane_Plane_face_233 Autoplane_Plane_face_234 Autoplane_Plane_face_235 Autoplane_Plane_face_236 Autoplane_Plane_face_237 Autoplane_Plane_face_238 Autoplane_Plane_face_239 Autoplane_Plane_face_240 Autoplane_Plane_face_241 Autoplane_Plane_face_242 Autoplane_Plane_face_243 Autoplane_Plane_face_244 Autoplane_Plane_face_245 Autoplane_Plane_face_246 Autoplane_Plane_face_247 Autoplane_Plane_face_248 Autoplane_Plane_face_249 Autoplane_Plane_face_250 Autoplane_Plane_face_251 Autoplane_Plane_face_252 Autoplane_Plane_face_253 Autoplane_Plane_face_254 Autoplane_Plane_face_255 Autoplane_Plane_face_256 Autoplane_Plane_face_257 Autoplane_Plane_face_258 Autoplane_Plane_face_259 Autoplane_Plane_face_260 Autoplane_Plane_face_261 Autoplane_Plane_face_262 Autoplane_Plane_face_263 Autoplane_Plane_face_264 Autoplane_Plane_face_265 Autoplane_Plane_face_266 Autoplane_Plane_face_267 Autoplane_Plane_face_268 Autoplane_Plane_face_269 Autoplane_Plane_face_270 Autoplane_Plane_face_271 Autoplane_Plane_face_272 Autoplane_Plane_face_273 Autoplane_Plane_face_274 Autoplane_Plane_face_275 Autoplane_Plane_face_276 Autoplane_Plane_face_277 Autoplane_Plane_face_278 Autoplane_Plane_face_279 Autoplane_Plane_face_280 Autoplane_Plane_face_281 Autoplane_Plane_face_282 Autoplane_Plane_face_283 Autoplane_Plane_face_284 Autoplane_Plane_face_285 Autoplane_Plane_face_286 Autoplane_Plane_face_287 Autoplane_Plane_face_288 Autoplane_Plane_face_289 Autoplane_Plane_face_290 Autoplane_Plane_face_291 Autoplane_Plane_face_292 Autoplane_Plane_face_293 Autoplane_Plane_face_294 Autoplane_Plane_face_295 Autoplane_Plane_face_296 Autoplane_Plane_face_297 Autoplane_Plane_face_298 Autoplane_Plane_face_299 Autoplane_Plane_face_300 Autoplane_Plane_face_301 Autoplane_Plane_face_302 Autoplane_Plane_face_303 Autoplane_Plane_face_304 Autoplane_Plane_face_305 Autoplane_Plane_face_306 Autoplane_Plane_face_307 Autoplane_Plane_face_308 Autoplane_Plane_face_309 Autoplane_Plane_face_310 Autoplane_Plane_face_311 Autoplane_Plane_face_312 Autoplane_Plane_face_313 Autoplane_Plane_face_314 Autoplane_Plane_face_315 Autoplane_Plane_face_316 Autoplane_Plane_face_317 Autoplane_Plane_face_318 Autoplane_Plane_face_319 Autoplane_Plane_face_320 Autoplane_Plane_face_321 Autoplane_Plane_face_322 Autoplane_Plane_face_323 Autoplane_Plane_face_324 Autoplane_Plane_face_325 Autoplane_Plane_face_326 Autoplane_Plane_face_327 Autoplane_Plane_face_328 Autoplane_Plane_face_329 Autoplane_Plane_face_330 Autoplane_Plane_face_331 Autoplane_Plane_face_332 Autoplane_Plane_face_333 Autoplane_Plane_face_334 Autoplane_Plane_face_335 Autoplane_Plane_face_336 Autoplane_Plane_face_337 Autoplane_Plane_face_338 Autoplane_Plane_face_339 Autoplane_Plane_face_340 Autoplane_Plane_face_341 Autoplane_Plane_face_342 Autoplane_Plane_face_343 Autoplane_Plane_face_344 Autoplane_Plane_face_345 Autoplane_Plane_face_346 Autoplane_Plane_face_347 Autoplane_Plane_face_348 Autoplane_Plane_face_349 Autoplane_Plane_face_350 Autoplane_Plane_face_351 Autoplane_Plane_face_352 Autoplane_Plane_face_353 Autoplane_Plane_face_354 Autoplane_Plane_face_355 Autoplane_Plane_face_356 Autoplane_Plane_face_357 Autoplane_Plane_face_358 Autoplane_Plane_face_359 Autoplane_Plane_face_360 Autoplane_Plane_face_361 Autoplane_Plane_face_362 Autoplane_Plane_face_363 Autoplane_Plane_face_364 Autoplane_Plane_face_365 Autoplane_Plane_face_366 Autoplane_Plane_face_367 Autoplane_Plane_face_368 Autoplane_Plane_face_369 Autoplane_Plane_face_370 Autoplane_Plane_face_371 Autoplane_Plane_face_372 Autoplane_Plane_face_373 Autoplane_Plane_face_374 Autoplane_Plane_face_375 Autoplane_Plane_face_376 Autoplane_Plane_face_377 Autoplane_Plane_face_378 Autoplane_Plane_face_379 Autoplane_Plane_face_380 Autoplane_Plane_face_381 Autoplane_Plane_face_382 Autoplane_Plane_face_383 Autoplane_Plane_face_384 Autoplane_Plane_face_385 Autoplane_Plane_face_386 Autoplane_Plane_face_387 Autoplane_Plane_face_388 Autoplane_Plane_face_389 Autoplane_Plane_face_390 Autoplane_Plane_face_391 Autoplane_Plane_face_392 Autoplane_Plane_face_393 Autoplane_Plane_face_394 Autoplane_Plane_face_395 Autoplane_Plane_face_396 Autoplane_Plane_face_397 Autoplane_Plane_face_398 Autoplane_Plane_face_399 Autoplane_Plane_face_400 Autoplane_Plane_face_401 Autoplane_Plane_face_402 Autoplane_Plane_face_403 Autoplane_Plane_face_404 Autoplane_Plane_face_405 Autoplane_Plane_face_406 Autoplane_Plane_face_407 Autoplane_Plane_face_408 Autoplane_Plane_face_409 Autoplane_Plane_face_410 Autoplane_Plane_face_411 Autoplane_Plane_face_412 Autoplane_Plane_face_413 Autoplane_Plane_face_414 Autoplane_Plane_face_415 Autoplane_Plane_face_416 Autoplane_Plane_face_417 Autoplane_Plane_face_418 Autoplane_Plane_face_419 Autoplane_Plane_face_420 Autoplane_Plane_face_421 Autoplane_Plane_face_422 Autoplane_Plane_face_423 Autoplane_Plane_face_424 Autoplane_Plane_face_425 Autoplane_Plane_face_426 Autoplane_Plane_face_427 Autoplane_Plane_face_428 Autoplane_Plane_face_429 Autoplane_Plane_face_430 Autoplane_Plane_face_431 Autoplane_Plane_face_432 Autoplane_Plane_face_433 Autoplane_Plane_face_434 Autoplane_Plane_face_435 Autoplane_Plane_face_436 Autoplane_Plane_face_437 Autoplane_Plane_face_438 Autoplane_Plane_face_439 Autoplane_Plane_face_440 Autoplane_Plane_face_441 Autoplane_Plane_face_442 Autoplane_Plane_face_443 Autoplane_Plane_face_444 Autoplane_Plane_face_445 Autoplane_Plane_face_446 Autoplane_Plane_face_447 Autoplane_Plane_face_448 Autoplane_Plane_face_449 Autoplane_Plane_face_450 Autoplane_Plane_face_451 Autoplane_Plane_face_452 Autoplane_Plane_face_453 Autoplane_Plane_face_454 Autoplane_Plane_face_455 Autoplane_Plane_face_456 Autoplane_Plane_face_457 Autoplane_Plane_face_458 Autoplane_Plane_face_459 Autoplane_Plane_face_460 Autoplane_Plane_face_461 Autoplane_Plane_face_462 Autoplane_Plane_face_463 Autoplane_Plane_face_464 Autoplane_Plane_face_465 Autoplane_Plane_face_466 Autoplane_Plane_face_467 Autoplane_Plane_face_468 Autoplane_Plane_face_469 Autoplane_Plane_face_470 Autoplane_Plane_face_471 Autoplane_Plane_face_472 Autoplane_Plane_face_473 Autoplane_Plane_face_474 Autoplane_Plane_face_475 Autoplane_Plane_face_476 Autoplane_Plane_face_477 Autoplane_Plane_face_478 Autoplane_Plane_face_479 Autoplane_Plane_face_480 Autoplane_Plane_face_481 Autoplane_Plane_face_482 Autoplane_Plane_face_483 Autoplane_Plane_face_484 Autoplane_Plane_face_485 Autoplane_Plane_face_486 Autoplane_Plane_face_487 Autoplane_Plane_face_488 Autoplane_Plane_face_489 Autoplane_Plane_face_490 Autoplane_Plane_face_491 Autoplane_Plane_face_492 Autoplane_Plane_face_493 Autoplane_Plane_face_494 Autoplane_Plane_face_495 Autoplane_Plane_face_496 Autoplane_Plane_face_497 Autoplane_Plane_face_498 Autoplane_Plane_face_499 Autoplane_Plane_face_500 Autoplane_Plane_face_501 Autoplane_Plane_face_502 Autoplane_Plane_face_503 Autoplane_Plane_face_504 Autoplane_Plane_face_505 Autoplane_Plane_face_506 Autoplane_Plane_face_507 Autoplane_Plane_face_508 Autoplane_Plane_face_509 Autoplane_Plane_face_510 Autoplane_Plane_face_511 Autoplane_Plane_face_512 Autoplane_Plane_face_513 Autoplane_Plane_face_514 Autoplane_Plane_face_515 Autoplane_Plane_face_516 Autoplane_Plane_face_517 Autoplane_Plane_face_518 Autoplane_Plane_face_519 Autoplane_Plane_face_520 Autoplane_Plane_face_521 Autoplane_Plane_face_522 Autoplane_Plane_face_523 Autoplane_Plane_face_524 Autoplane_Plane_face_525 Autoplane_Plane_face_526 Autoplane_Plane_face_527 Autoplane_Plane_face_528 Autoplane_Plane_face_529 Autoplane_Plane_face_530 Autoplane_Plane_face_531 Autoplane_Plane_face_532 Autoplane_Plane_face_533 Autoplane_Plane_face_534 Autoplane_Plane_face_535 Autoplane_Plane_face_536 Autoplane_Plane_face_537 Autoplane_Plane_face_538 Autoplane_Plane_face_539 Autoplane_Plane_face_540 Autoplane_Plane_face_541 Autoplane_Plane_face_542 Autoplane_Plane_face_543 Autoplane_Plane_face_544 Autoplane_Plane_face_545 Autoplane_Plane_face_546 Autoplane_Plane_face_547 Autoplane_Plane_face_548 Autoplane_Plane_face_549 Autoplane_Plane_face_550 Autoplane_Plane_face_551 Autoplane_Plane_face_552 Autoplane_Plane_face_553 Autoplane_Plane_face_554 Autoplane_Plane_face_555 Autoplane_Plane_face_556 Autoplane_Plane_face_557 Autoplane_Plane_face_558 Autoplane_Plane_face_559 Autoplane_Plane_face_560 Autoplane_Plane_face_561 Autoplane_Plane_face_562 Autoplane_Plane_face_563 Autoplane_Plane_face_564 Autoplane_Plane_face_565 Autoplane_Plane_face_566 Autoplane_Plane_face_567 Autoplane_Plane_face_568 Autoplane_Plane_face_569 Autoplane_Plane_face_570 Autoplane_Plane_face_571 Autoplane_Plane_face_572 Autoplane_Plane_face_573 Autoplane_Plane_face_574 Autoplane_Plane_face_575 Autoplane_Plane_face_576 Autoplane_Plane_face_577 Autoplane_Plane_face_578 Autoplane_Plane_face_579 Autoplane_Plane_face_580 Autoplane_Plane_face_581 Autoplane_Plane_face_582 Autoplane_Plane_face_583 Autoplane_Plane_face_584 Autoplane_Plane_face_585 Autoplane_Plane_face_586 Autoplane_Plane_face_587 Autoplane_Plane_face_588 Autoplane_Plane_face_589 Autoplane_Plane_face_590 Autoplane_Plane_face_591 Autoplane_Plane_face_592 Autoplane_Plane_face_593 Autoplane_Plane_face_594 Autoplane_Plane_face_595 Autoplane_Plane_face_596 Autoplane_Plane_face_597 Autoplane_Plane_face_598 Autoplane_Plane_face_599 Autoplane_Plane_face_600 Autoplane_Plane_face_601 Autoplane_Plane_face_602 Autoplane_Plane_face_603 Autoplane_Plane_face_604 Autoplane_Plane_face_605 Autoplane_Plane_face_606 Autoplane_Plane_face_607 Autoplane_Plane_face_608 Autoplane_Plane_face_609 Autoplane_Plane_face_610 Autoplane_Plane_face_611 Autoplane_Plane_face_612 Autoplane_Plane_face_613 Autoplane_Plane_face_614 Autoplane_Plane_face_615 Autoplane_Plane_face_616 Autoplane_Plane_face_617 Autoplane_Plane_face_618 Autoplane_Plane_face_619 Autoplane_Plane_face_620 Autoplane_Plane_face_621 Autoplane_Plane_face_622 Autoplane_Plane_face_623 Autoplane_Plane_face_624 Autoplane_Plane_face_625 Autoplane_Plane_face_626 Autoplane_Plane_face_627 Autoplane_Plane_face_628 Autoplane_Plane_face_629 Autoplane_Plane_face_630 Autoplane_Plane_face_631 Autoplane_Plane_face_632 Autoplane_Plane_face_633 Autoplane_Plane_face_634 Autoplane_Plane_face_635 Autoplane_Plane_face_636 Autoplane_Plane_face_637 Autoplane_Plane_face_638 Autoplane_Plane_face_639 Autoplane_Plane_face_640 Autoplane_Plane_face_641 Autoplane_Plane_face_642 Autoplane_Plane_face_643 Autoplane_Plane_face_644 Autoplane_Plane_face_645 Autoplane_Plane_face_646 Autoplane_Plane_face_647 Autoplane_Plane_face_648 Autoplane_Plane_face_649 Autoplane_Plane_face_650 Autoplane_Plane_face_651 Autoplane_Plane_face_652 Autoplane_Plane_face_653 Autoplane_Plane_face_654 Autoplane_Plane_face_655 Autoplane_Plane_face_656 Autoplane_Plane_face_657 Autoplane_Plane_face_658 Autoplane_Plane_face_659 Autoplane_Plane_face_660 Autoplane_Plane_face_661 Autoplane_Plane_face_662 Autoplane_Plane_face_663 Autoplane_Plane_face_664 Autoplane_Plane_face_665 Autoplane_Plane_face_666 Autoplane_Plane_face_667 Autoplane_Plane_face_668 Autoplane_Plane_face_669 Autoplane_Plane_face_670 Autoplane_Plane_face_671 Autoplane_Plane_face_672 Autoplane_Plane_face_673 Autoplane_Plane_face_674 Autoplane_Plane_face_675 Autoplane_Plane_face_676 Autoplane_Plane_face_677 Autoplane_Plane_face_678 Autoplane_Plane_face_679 Autoplane_Plane_face_680 Autoplane_Plane_face_681 Autoplane_Plane_face_682 Autoplane_Plane_face_683 Autoplane_Plane_face_684 Autoplane_Plane_face_685 Autoplane_Plane_face_686 Autoplane_Plane_face_687 Autoplane_Plane_face_688 Autoplane_Plane_face_689 Autoplane_Plane_face_690 Autoplane_Plane_face_691 Autoplane_Plane_face_692 Autoplane_Plane_face_693 Autoplane_Plane_face_694 Autoplane_Plane_face_695 Autoplane_Plane_face_696 Autoplane_Plane_face_697 Autoplane_Plane_face_698 Autoplane_Plane_face_699 Autoplane_Plane_face_700 Autoplane_Plane_face_701 Autoplane_Plane_face_702 Autoplane_Plane_face_703 Autoplane_Plane_face_704 Autoplane_Plane_face_705 Autoplane_Plane_face_706 Autoplane_Plane_face_707 Autoplane_Plane_face_708 Autoplane_Plane_face_709 Autoplane_Plane_face_710 Autoplane_Plane_face_711 Autoplane_Plane_face_712 Autoplane_Plane_face_713 Autoplane_Plane_face_714 Autoplane_Plane_face_715 Autoplane_Plane_face_716 Autoplane_Plane_face_717 Autoplane_Plane_face_718 Autoplane_Plane_face_719 Autoplane_Plane_face_720 Autoplane_Plane_face_721 Autoplane_Plane_face_722 Autoplane_Plane_face_723 Autoplane_Plane_face_724 Autoplane_Plane_face_725 Autoplane_Plane_face_726 Autoplane_Plane_face_727 Autoplane_Plane_face_728 Autoplane_Plane_face_729 Autoplane_Plane_face_730 Autoplane_Plane_face_731 Autoplane_Plane_face_732 Autoplane_Plane_face_733 Autoplane_Plane_face_734 Autoplane_Plane_face_735 Autoplane_Plane_face_736 Autoplane_Plane_face_737 Autoplane_Plane_face_738 Autoplane_Plane_face_739 Autoplane_Plane_face_740 Autoplane_Plane_face_741 Autoplane_Plane_face_742 Autoplane_Plane_face_743 Autoplane_Plane_face_744 Autoplane_Plane_face_745 Autoplane_Plane_face_746 Autoplane_Plane_face_747 Autoplane_Plane_face_748 Autoplane_Plane_face_749 Autoplane_Plane_face_750 Autoplane_Plane_face_751 Autoplane_Plane_face_752 Autoplane_Plane_face_753 Autoplane_Plane_face_754 Autoplane_Plane_face_755 Autoplane_Plane_face_756 Autoplane_Plane_face_757 Autoplane_Plane_face_758 Autoplane_Plane_face_759 Autoplane_Plane_face_760 Autoplane_Plane_face_761 Autoplane_Plane_face_762 Autoplane_Plane_face_763 Autoplane_Plane_face_764 Autoplane_Plane_face_765 Autoplane_Plane_face_766 Autoplane_Plane_face_767 Autoplane_Plane_face_768 Autoplane_Plane_face_769 Autoplane_Plane_face_770 Autoplane_Plane_face_771 Autoplane_Plane_face_772 Autoplane_Plane_face_773 Autoplane_Plane_face_774 Autoplane_Plane_face_775 Autoplane_Plane_face_776 Autoplane_Plane_face_777 Autoplane_Plane_face_778 Autoplane_Plane_face_779 Autoplane_Plane_face_780 Autoplane_Plane_face_781 Autoplane_Plane_face_782 Autoplane_Plane_face_783 Autoplane_Plane_face_784 Autoplane_Plane_face_785 Autoplane_Plane_face_786 Autoplane_Plane_face_787 Autoplane_Plane_face_788 Autoplane_Plane_face_789 Autoplane_Plane_face_790 Autoplane_Plane_face_791 Autoplane_Plane_face_792 Autoplane_Plane_face_793 Autoplane_Plane_face_794 Autoplane_Plane_face_795 Autoplane_Plane_face_796 Autoplane_Plane_face_797 Autoplane_Plane_face_798 Autoplane_Plane_face_799 Autoplane_Plane_face_800 Autoplane_Plane_face_801 Autoplane_Plane_face_802 Autoplane_Plane_face_803 Autoplane_Plane_face_804 Autoplane_Plane_face_805 Autoplane_Plane_face_806 Autoplane_Plane_face_807 Autoplane_Plane_face_808 Autoplane_Plane_face_809 Autoplane_Plane_face_810 Autoplane_Plane_face_811 Autoplane_Plane_face_812 Autoplane_Plane_face_813 Autoplane_Plane_face_814 Autoplane_Plane_face_815 Autoplane_Plane_face_816 Autoplane_Plane_face_817 Autoplane_Plane_face_818 Autoplane_Plane_face_819 Autoplane_Plane_face_820 Autoplane_Plane_face_821 Autoplane_Plane_face_822 Autoplane_Plane_face_823 Autoplane_Plane_face_824 Autoplane_Plane_face_825 Autoplane_Plane_face_826 Autoplane_Plane_face_827 Autoplane_Plane_face_828 Autoplane_Plane_face_829 Autoplane_Plane_face_830 Autoplane_Plane_face_831 Autoplane_Plane_face_832 Autoplane_Plane_face_833 Autoplane_Plane_face_834 Autoplane_Plane_face_835 Autoplane_Plane_face_836 Autoplane_Plane_face_837 Autoplane_Plane_face_838 Autoplane_Plane_face_839 Autoplane_Plane_face_840 Autoplane_Plane_face_841 Autoplane_Plane_face_842 Autoplane_Plane_face_843 Autoplane_Plane_face_844 Autoplane_Plane_face_845 Autoplane_Plane_face_846 Autoplane_Plane_face_847 Autoplane_Plane_face_848 Autoplane_Plane_face_849 Autoplane_Plane_face_850 Autoplane_Plane_face_851 Autoplane_Plane_face_852 Autoplane_Plane_face_853 Autoplane_Plane_face_854 Autoplane_Plane_face_855 Autoplane_Plane_face_856 Autoplane_Plane_face_857 Autoplane_Plane_face_858 Autoplane_Plane_face_859 Autoplane_Plane_face_860 Autoplane_Plane_face_861 Autoplane_Plane_face_862 Autoplane_Plane_face_863 Autoplane_Plane_face_864 Autoplane_Plane_face_865 Autoplane_Plane_face_866 Autoplane_Plane_face_867 Autoplane_Plane_face_868 Autoplane_Plane_face_869 Autoplane_Plane_face_870 Autoplane_Plane_face_871 Autoplane_Plane_face_872 Autoplane_Plane_face_873 Autoplane_Plane_face_874 Autoplane_Plane_face_875 Autoplane_Plane_face_876 Autoplane_Plane_face_877 Autoplane_Plane_face_878 Autoplane_Plane_face_879 Autoplane_Plane_face_880 Autoplane_Plane_face_881 Autoplane_Plane_face_882 Autoplane_Plane_face_883 Autoplane_Plane_face_884 Autoplane_Plane_face_885 Autoplane_Plane_face_886 Autoplane_Plane_face_887 Autoplane_Plane_face_888 Autoplane_Plane_face_889 Autoplane_Plane_face_890 Autoplane_Plane_face_891 Autoplane_Plane_face_892 Autoplane_Plane_face_893 Autoplane_Plane_face_894 Autoplane_Plane_face_895 Autoplane_Plane_face_896 Autoplane_Plane_face_897 Autoplane_Plane_face_898 Autoplane_Plane_face_899 Autoplane_Plane_face_900 Autoplane_Plane_face_901 Autoplane_Plane_face_902 Autoplane_Plane_face_903 Autoplane_Plane_face_904 Autoplane_Plane_face_905 Autoplane_Plane_face_906 Autoplane_Plane_face_907 Autoplane_Plane_face_908 Autoplane_Plane_face_909 Autoplane_Plane_face_910 Autoplane_Plane_face_911 Autoplane_Plane_face_912 Autoplane_Plane_face_913 Autoplane_Plane_face_914 Autoplane_Plane_face_915 Autoplane_Plane_face_916 Autoplane_Plane_face_917 Autoplane_Plane_face_918 Autoplane_Plane_face_919 Autoplane_Plane_face_920 Autoplane_Plane_face_921 Autoplane_Plane_face_922 Autoplane_Plane_face_923 Autoplane_Plane_face_924 Autoplane_Plane_face_925 Autoplane_Plane_face_926 Autoplane_Plane_face_927 Autoplane_Plane_face_928 Autoplane_Plane_face_929 Autoplane_Plane_face_930 Autoplane_Plane_face_931 Autoplane_Plane_face_932 Autoplane_Plane_face_933 Autoplane_Plane_face_934 Autoplane_Plane_face_935 Autoplane_Plane_face_936 Autoplane_Plane_face_937 Autoplane_Plane_face_938 Autoplane_Plane_face_939 Autoplane_Plane_face_940 Autoplane_Plane_face_941 Autoplane_Plane_face_942 Autoplane_Plane_face_943 Autoplane_Plane_face_944 Autoplane_Plane_face_945 Autoplane_Plane_face_946 Autoplane_Plane_face_947 Autoplane_Plane_face_948 Autoplane_Plane_face_949 Autoplane_Plane_face_950 Autoplane_Plane_face_951 Autoplane_Plane_face_952 Autoplane_Plane_face_953 Autoplane_Plane_face_954 Autoplane_Plane_face_955 Autoplane_Plane_face_956 Autoplane_Plane_face_957 Autoplane_Plane_face_958 Autoplane_Plane_face_959 Autoplane_Plane_face_960 Autoplane_Plane_face_961 Autoplane_Plane_face_962 Autoplane_Plane_face_963 Autoplane_Plane_face_964 Autoplane_Plane_face_965 Autoplane_Plane_face_966 Autoplane_Plane_face_967 Autoplane_Plane_face_968 Autoplane_Plane_face_969 Autoplane_Plane_face_970 Autoplane_Plane_face_971 Autoplane_Plane_face_972 Autoplane_Plane_face_973 Autoplane_Plane_face_974 Autoplane_Plane_face_975 Autoplane_Plane_face_976 Autoplane_Plane_face_977 Autoplane_Plane_face_978 Autoplane_Plane_face_979 Autoplane_Plane_face_980 Autoplane_Plane_face_981 Autoplane_Plane_face_982 Autoplane_Plane_face_983 Autoplane_Plane_face_984 Autoplane_Plane_face_985 Autoplane_Plane_face_986 Autoplane_Plane_face_987 Autoplane_Plane_face_988 Autoplane_Plane_face_989 Autoplane_Plane_face_990 Autoplane_Plane_face_991 Autoplane_Plane_face_992 Autoplane_Plane_face_993 Autoplane_Plane_face_994 Autoplane_Plane_face_995 Autoplane_Plane_face_996 Autoplane_Plane_face_997 Autoplane_Plane_face_998 Autoplane_Plane_face_999 Autoplane_Plane_face_1000 Autoplane_Plane_face_1001 Autoplane_Plane_face_1002 Autoplane_Plane_face_1003 Autoplane_Plane_face_1004 Autoplane_Plane_face_1005 Autoplane_Plane_face_1006 Autoplane_Plane_face_1007 Autoplane_Plane_face_1008 Autoplane_Plane_face_1009 Autoplane_Plane_face_1010 Autoplane_Plane_face_1011 Autoplane_Plane_face_1012 Autoplane_Plane_face_1013 Autoplane_Plane_face_1014 Autoplane_Plane_face_1015 Autoplane_Plane_face_1016 Autoplane_Plane_face_1017 Autoplane_Plane_face_1018 Autoplane_Plane_face_1019 Autoplane_Plane_face_1020 Autoplane_Plane_face_1021 Autoplane_Plane_face_1022 Autoplane_Plane_face_1023 Autoplane_Plane_face_1024 Autoplane_Plane_face_1025 Autoplane_Plane_face_1026 Autoplane_Plane_face_1027 Autoplane_Plane_face_1028 Autoplane_Plane_face_1029 Autoplane_Plane_face_1030 Autoplane_Plane_face_1031 Autoplane_Plane_face_1032 Autoplane_Plane_face_1033 Autoplane_Plane_face_1034 Autoplane_Plane_face_1035 Autoplane_Plane_face_1036 Autoplane_Plane_face_1037 Autoplane_Plane_face_1038 Autoplane_Plane_face_1039 Autoplane_Plane_face_1040 Autoplane_Plane_face_1041 Autoplane_Plane_face_1042 Autoplane_Plane_face_1043 Autoplane_Plane_face_1044 Autoplane_Plane_face_1045 Autoplane_Plane_face_1046 Autoplane_Plane_face_1047 Autoplane_Plane_face_1048 Autoplane_Plane_face_1049 Autoplane_Plane_face_1050 Autoplane_Plane_face_1051 Autoplane_Plane_face_1052 Autoplane_Plane_face_1053 Autoplane_Plane_face_1054 Autoplane_Plane_face_1055 Autoplane_Plane_face_1056 Autoplane_Plane_face_1057 Autoplane_Plane_face_1058 Autoplane_Plane_face_1059 Autoplane_Plane_face_1060 Autoplane_Plane_face_1061 Autoplane_Plane_face_1062 Autoplane_Plane_face_1063 Autoplane_Plane_face_1064 Autoplane_Plane_face_1065 Autoplane_Plane_face_1066 Autoplane_Plane_face_1067 Autoplane_Plane_face_1068 Autoplane_Plane_face_1069 Autoplane_Plane_face_1070 Autoplane_Plane_face_1071 Autoplane_Plane_face_1072 Autoplane_Plane_face_1073 Autoplane_Plane_face_1074 Autoplane_Plane_face_1075 Autoplane_Plane_face_1076 Autoplane_Plane_face_1077 Autoplane_Plane_face_1078 Autoplane_Plane_face_1079 Autoplane_Plane_face_1080 Autoplane_Plane_face_1081 Autoplane_Plane_face_1082 Autoplane_Plane_face_1083 Autoplane_Plane_face_1084 Autoplane_Plane_face_1085 Autoplane_Plane_face_1086 Autoplane_Plane_face_1087 Autoplane_Plane_face_1088 Autoplane_Plane_face_1089 Autoplane_Plane_face_1090 Autoplane_Plane_face_1091 Autoplane_Plane_face_1092 Autoplane_Plane_face_1093 Autoplane_Plane_face_1094 Autoplane_Plane_face_1095 Autoplane_Plane_face_1096 Autoplane_Plane_face_1097 Autoplane_Plane_face_1098 Autoplane_Plane_face_1099 Autoplane_Plane_face_1100 Autoplane_Plane_face_1101 Autoplane_Plane_face_1102 Autoplane_Plane_face_1103 Autoplane_Plane_face_1104 Autoplane_Plane_face_1105 Autoplane_Plane_face_1106 Autoplane_Plane_face_1107 Autoplane_Plane_face_1108 Autoplane_Plane_face_1109 Autoplane_Plane_face_1110 Autoplane_Plane_face_1111 Autoplane_Plane_face_1112 Autoplane_Plane_face_1113 Autoplane_Plane_face_1114 Autoplane_Plane_face_1115 Autoplane_Plane_face_1116 Autoplane_Plane_face_1117 Autoplane_Plane_face_1118 Autoplane_Plane_face_1119 Autoplane_Plane_face_1120 Autoplane_Plane_face_1121 Autoplane_Plane_face_1122 Autoplane_Plane_face_1123 Autoplane_Plane_face_1124 Autoplane_Plane_face_1125 Autoplane_Plane_face_1126 Autoplane_Plane_face_1127 Autoplane_Plane_face_1128 Autoplane_Plane_face_1129 Autoplane_Plane_face_1130 Autoplane_Plane_face_1131 Autoplane_Plane_face_1132 Autoplane_Plane_face_1133 Autoplane_Plane_face_1134 Autoplane_Plane_face_1135 Autoplane_Plane_face_1136 Autoplane_Plane_face_1137 Autoplane_Plane_face_1138 Autoplane_Plane_face_1139 Autoplane_Plane_face_1140 Autoplane_Plane_face_1141 Autoplane_Plane_face_1142 Autoplane_Plane_face_1143 Autoplane_Plane_face_1144 Autoplane_Plane_face_1145 Autoplane_Plane_face_1146 Autoplane_Plane_face_1147 Autoplane_Plane_face_1148 Autoplane_Plane_face_1149 Autoplane_Plane_face_1150 Autoplane_Plane_face_1151 Autoplane_Plane_face_1152 Autoplane_Plane_face_1153 Autoplane_Plane_face_1154 Autoplane_Plane_face_1155 Autoplane_Plane_face_1156 Autoplane_Plane_face_1157 Autoplane_Plane_face_1158 Autoplane_Plane_face_1159 Autoplane_Plane_face_1160 Autoplane_Plane_face_1161 Autoplane_Plane_face_1162 Autoplane_Plane_face_1163 Autoplane_Plane_face_1164 Autoplane_Plane_face_1165 Autoplane_Plane_face_1166 Autoplane_Plane_face_1167 Autoplane_Plane_face_1168 Autoplane_Plane_face_1169 Autoplane_Plane_face_1170 Autoplane_Plane_face_1171 Autoplane_Plane_face_1172 Autoplane_Plane_face_1173 Autoplane_Plane_face_1174 Autoplane_Plane_face_1175 Autoplane_Plane_face_1176 Autoplane_Plane_face_1177 Autoplane_Plane_face_1178 Autoplane_Plane_face_1179 Autoplane_Plane_face_1180 Autoplane_Plane_face_1181 Autoplane_Plane_face_1182 Autoplane_Plane_face_1183 Autoplane_Plane_face_1184 Autoplane_Plane_face_1185 Autoplane_Plane_face_1186 Autoplane_Plane_face_1187 Autoplane_Plane