FoamFile
{
	version	2.0;
	class	dictionary;
	format	ascii;
	location	"system";
	object	fvSolution;
}
solvers
{
	p
	{
		solver	GAMG;
		smoother	GaussSeidel;
		relTol	0.01;
		cacheAgglomeration	true;
		nFinestSweeps	2;
		nPreSweeps	0;
		maxIter	100;
		nPostSweeps	1;
		agglomerator	faceAreaPair;
		nCellsInCoarsestLevel	10;
		tolerance	1.0E-6;
		mergeLevels	1;
	}
	U
	{
		solver	PBiCGStab;
		relTol	0.01;
		preconditioner	DILU;
		tolerance	1.0E-6;
		maxIter	100;
	}
	h
	{
		solver	PBiCGStab;
		relTol	0.01;
		preconditioner	DILU;
		tolerance	1.0E-6;
		maxIter	100;
	}
}
SIMPLE
{
	consistent	true;
	nNonOrthogonalCorrectors	1;
	transonic	false;
	residualControl
	{
		p	1.0E-4;
		U	1.0E-4;
		h	1.0E-4;
	}
	pRefCell	0;
	pRefValue	100000.0;
}
relaxationFactors
{
	p	0.75;
	U	0.75;
	rho	0.7;
	h	0.8;
}
